Circuit: * C:\Users\steen\Documents\KiCad\Project\UcD UM10155 Original\simulation\UcD simplified (5kHz .tran 0 201µ 1µ 100n).asc

Early termination of direct N-R iteration.
Direct Newton iteration failed to find .op point.  (Use ".option noopiter" to skip.)
Starting Gmin stepping
Gmin = 10
Gmin = 1.07374
Gmin = 0.115292
Gmin = 0.0123794
Gmin = 0.00132923
Gmin = 0.000142725
vernier = 0.5
vernier = 0.25
vernier = 0.333333
Gmin = 0.000112264
vernier = 0.444444
Gmin = 4.33159e-005
vernier = 0.592592
vernier = 0.790123
vernier = 0.395061
Gmin = 1.43704e-005
vernier = 0.197531
vernier = 0.0987653
vernier = 0.0493827
vernier = 0.0246913
vernier = 0.0123457
Gmin = 1.49082e-005
vernier = 0.0164609
vernier = 0.00823044
Gmin = 1.44856e-005
vernier = 0.00411522
vernier = 0.00205761
vernier = 0.00102881
vernier = 0.000514403
Gmin = 1.448e-005
Gmin = 0
Gmin stepping failed

Starting source stepping with srcstepmethod=0
Source Step = 3.0303%
Source Step = 33.3333%
Source Step = 45.4575%
Source Step = 45.4871%
Source Step = 45.5167%
Source Step = 45.5463%
Source Step = 45.5759%
Source Step = 45.6055%
vernier = 0.00146484
Source Step = 45.6454%
Source Step = 45.6898%
Source Step = 45.7342%
Source Step = 45.7786%
Source Step = 45.823%
vernier = 0.00219727
Source Step = 45.8807%
Source Step = 45.9473%
Source Step = 46.0138%
Source Step = 46.0804%
Source Step = 46.147%
vernier = 0.0032959
Source Step = 46.2302%
Source Step = 46.3301%
Source Step = 46.43%
Source Step = 46.5299%
Source Step = 46.6297%
vernier = 0.00494385
Source Step = 46.7496%
Source Step = 46.8994%
Source Step = 47.0492%
Source Step = 47.199%
Source Step = 47.3489%
vernier = 0.00741577
Source Step = 47.5211%
Source Step = 47.7459%
Source Step = 47.9706%
Source Step = 48.1953%
Source Step = 48.42%
vernier = 0.0111237
Source Step = 48.6672%
Source Step = 49.0043%
Source Step = 49.3414%
Source Step = 49.6785%
Source Step = 50.0155%
vernier = 0.0166855
Source Step = 50.3695%
Source Step = 50.8751%
Source Step = 51.3807%
Source Step = 51.8863%
Source Step = 52.392%
Source Step = 52.8976%
vernier = 0.0250282
Source Step = 53.656%
Source Step = 54.4144%
Source Step = 55.1729%
Source Step = 55.9313%
Source Step = 56.6897%
vernier = 0.0375423
Source Step = 57.7895%
Source Step = 58.9271%
Source Step = 60.0647%
Source Step = 61.2024%
Source Step = 62.34%
vernier = 0.0563135
Source Step = 63.9327%
Source Step = 65.6392%
Source Step = 67.3457%
Source Step = 69.0522%
Source Step = 70.7586%
vernier = 0.0844703
Source Step = 73.0624%
Source Step = 75.6221%
Source Step = 78.1818%
Source Step = 80.7415%
Source Step = 83.3012%
vernier = 0.126705
Source Step = 86.6288%
Source Step = 90.4684%
Source Step = 90.6903%
Source Step = 90.7503%
Source Step = 90.8103%
Source Step = 90.8703%
Source Step = 90.9303%
Source Step = 90.9903%
Source Step = 91.0503%
Source Step = 91.1103%
Source Step = 91.1703%
Source Step = 91.2303%
Source Step = 91.2903%
Source Step = 91.3503%
Source Step = 91.4103%
Source Step = 91.4702%
Source Step = 91.5302%
Source Step = 91.5902%
Source Step = 91.6502%
Source Step = 91.7102%
Source Step = 91.7702%
Source Step = 91.8302%
Source Step = 91.8902%
Source Step = 91.9502%
Source Step = 92.0102%
Source Step = 92.0702%
Source Step = 92.1302%
Source Step = 92.1902%
Source Step = 92.2502%
Source Step = 92.3101%
Source Step = 92.3701%
Source Step = 92.4301%
Source Step = 92.4901%
Source Step = 92.5501%
Source Step = 92.6101%
Source Step = 92.6701%
Source Step = 92.7301%
Source Step = 92.7901%
Source Step = 92.8501%
Source Step = 92.9101%
Source Step = 92.9701%
Source Step = 93.0301%
Source Step = 93.0901%
Source Step = 93.1501%
Source Step = 93.21%
Source Step = 93.27%
Source Step = 93.33%
Source Step = 93.39%
Source Step = 93.45%
Source Step = 93.51%
Source Step = 93.57%
Source Step = 93.63%
Source Step = 93.69%
Source Step = 93.75%
Source Step = 93.81%
Source Step = 93.87%
Source Step = 93.93%
Source Step = 93.99%
Source Step = 94.0499%
Source Step = 94.1099%
Source Step = 94.1699%
Source Step = 94.2299%
Source Step = 94.2899%
Source Step = 94.3499%
Source Step = 94.4099%
Source Step = 94.4699%
Source Step = 94.5299%
Source Step = 94.5899%
Source Step = 94.6499%
Source Step = 94.7099%
Source Step = 94.7699%
Source Step = 94.8299%
Source Step = 94.8898%
Source Step = 94.9498%
Source Step = 95.0098%
Source Step = 95.0698%
Source Step = 95.1298%
Source Step = 95.1898%
Source Step = 95.2498%
Source Step = 95.3098%
Source Step = 95.3698%
Source Step = 95.4298%
Source Step = 95.4898%
Source Step = 95.5498%
Source Step = 95.6098%
Source Step = 95.6698%
Source Step = 95.7298%
Source Step = 95.7897%
Source Step = 95.8497%
Source Step = 95.9097%
Source Step = 95.9697%
Source Step = 96.0297%
Source Step = 96.0897%
Source Step = 96.1497%
Source Step = 96.2097%
Source Step = 96.2697%
Source Step = 96.3297%
Source Step = 96.3897%
Source Step = 96.4497%
Source Step = 96.5097%
Source Step = 96.5697%
Source Step = 96.6296%
Source Step = 96.6896%
Source Step = 96.7496%
Source Step = 96.8096%
Source Step = 96.8696%
Source Step = 96.9296%
Source Step = 96.9896%
Source Step = 97.0496%
Source Step = 97.1096%
Source Step = 97.1696%
Source Step = 97.2296%
Source Step = 97.2896%
Source Step = 97.3496%
Source Step = 97.4096%
Source Step = 97.4696%
Source Step = 97.5295%
Source Step = 97.5895%
Source Step = 97.6495%
Source Step = 97.7095%
Source Step = 97.7695%
Source Step = 97.8295%
Source Step = 97.8895%
Source Step = 97.9495%
Source Step = 98.0095%
Source Step = 98.0695%
Source Step = 98.1295%
Source Step = 98.1895%
Source Step = 98.2495%
Source Step = 98.3095%
Source Step = 98.3694%
Source Step = 98.4294%
Source Step = 98.4894%
Source Step = 98.5494%
Source Step = 98.6094%
Source Step = 98.6694%
Source Step = 98.7294%
Source Step = 98.7894%
Source Step = 98.8494%
Source Step = 98.9094%
Source Step = 98.9694%
Source Step = 99.0294%
Source Step = 99.0894%
Source Step = 99.1494%
Source Step = 99.2094%
Source Step = 99.2693%
Source Step = 99.3293%
Source Step = 99.3893%
Source Step = 99.4493%
Source Step = 99.5093%
Source Step = 99.5693%
Source Step = 99.6293%
Source Step = 99.6893%
Source Step = 99.7493%
Source Step = 99.8093%
Source Step = 99.8693%
Source Step = 99.9293%
Source Step = 99.9893%
Source Step = 100%
Source Step = 100%
Source Step = 100%
Source Step = 100%
Source Step = 100%
Source Step = 100%
Source Step = 100%
Source Step = 100%
Source Step = 100%
Source Step = 100%
Source Step = 100%
Source Step = 100%
Source Step = 100%
Source Step = 100%
Source Step = 100%
Source Step = 100%
Source Step = 100%
Source Step = 100%
Source Step = 100%
Source Step = 100%
Source Step = 100%
Source Step = 100%
Source Step = 100%
Source Step = 100%
Source Step = 100%
Source Step = 100%
Source Step = 100%
Source Step = 100%
Source Step = 100%
Source Step = 100%
Source Step = 100%
Source Step = 100%
Source Step = 100%
Source Step = 100%
Source Step = 100%
Source Step = 100%
Source Step = 100%
Source Step = 100%
Source Step = 100%
Source Step = 100%
Source Step = 100%
Source Step = 100%
Source Step = 100%
Source Step = 100%
Source Step = 100%
Source Step = 100%
Source Step = 100%
Source Step = 100%
Source Step = 100%
Source Step = 100%
Source Step = 100%
Source Step = 100%
Source Step = 100%
Source Step = 100%
Source Step = 100%
Source Step = 100%
Source Step = 100%
Source Step = 100%
Source Step = 100%
Source Step = 100%
Source Step = 100%
Source Step = 100%
Source Step = 100%
Source Step = 100%
Source Step = 100%
Source Step = 100%
Source Step = 100%
Source Step = 100%
Source Step = 100%
Source Step = 100%
Source Step = 100%
Source Step = 100%
Source Step = 100%
Source Step = 100%
Source Step = 100%
Source Step = 100%
Source Step = 100%
Source Step = 100%
Source Step = 100%
Source Step = 100%
Source Step = 100%
Source Step = 100%
Source Step = 100%
Source Step = 100%
Source Step = 100%
Source Step = 100%
Source Step = 100%
Source Step = 100%
Source Step = 100%
Source Step = 100%
Source Step = 100%
Source Step = 100%
Source Step = 100%
Source Step = 100%
Source Step = 100%
Source Step = 100%
Source Step = 100%
Source Step = 100%
Source Step = 100%
Source Step = 100%
Source Step = 100%
Source Step = 100%
Source Step = 100%
Source Step = 100%
Source Step = 100%
Source Step = 100%
Source Step = 100%
Source Step = 100%
Source Step = 100%
Source Step = 100%
Source Step = 100%
Source Step = 100%
Source Step = 100%
Source Step = 100%
Source Step = 100%
Source Step = 100%
Source Step = 100%
Source Step = 100%
Source Step = 100%
Source Step = 100%
Source Step = 100%
Source Step = 100%
Source Step = 100%
Source Step = 100%
Source Step = 100%
Source Step = 100%
Source Step = 100%
Source Step = 100%
Source Step = 100%
Source Step = 100%
Source Step = 100%
Source Step = 100%
Source Step = 100%
Source Step = 100%
Source Step = 100%
Source Step = 100%
Source Step = 100%
Source Step = 100%
Source Step = 100%
Source Step = 100%
Source Step = 100%
Source Step = 100%
Source Step = 100%
Source Step = 100%
Source Step = 100%
Source Step = 100%
Source Step = 100%
Source Step = 100%
Source Step = 100%
Source Step = 100%
Source Step = 100%
Source Step = 100%
Source Step = 100%
Source Step = 100%
Source Step = 100%
Source Step = 100%
Source Step = 100%
Source Step = 100%
Source Step = 100%
Source Step = 100%
Source Step = 100%
Source Step = 100%
Source Step = 100%
Source Step = 100%
Source Step = 100%
Source Step = 100%
Source Step = 100%
Source Step = 100%
Source Step = 100%
Source Step = 100%
Source Step = 100%
Source Step = 100%
Source Step = 100%
Source Step = 100%
Source Step = 100%
Source Step = 100%
Source Step = 100%
Source Step = 100%
Source Step = 100%
Source Step = 100%
Source Step = 100%
Source Step = 100%
Source Step = 100%
Source Step = 100%
Source Step = 100%
Source Step = 100%
Source Step = 100%
Source Step = 100%
Source Step = 100%
Source Step = 100%
Source Step = 100%
Source Step = 100%
Source Step = 100%
Source Step = 100%
Source Step = 100%
Source Step = 100%
Source Step = 100%
Source Step = 100%
Source Step = 100%
Source Step = 100%
Source Step = 100%
Source Step = 100%
Source Step = 100%
Source Step = 100%
Source Step = 100%
Source Step = 100%
Source Step = 100%
Source Step = 100%
Source Step = 100%
Source Step = 100%
Source Step = 100%
Source Step = 100%
Source stepping aborted.
Starting source stepping with srcstepmethod=1
Source Step = 3.0303%
Source Step = 33.3333%
Source Step = 63.6364%
Source Step = 93.9394%
Source Step = 99.0118%
vernier = 0.000976563
Source Step = 99.0296%
Source Step = 99.0592%
Source Step = 99.0888%
Source Step = 99.1184%
Source Step = 99.148%
Source Step = 99.1776%
Source Step = 99.2071%
Source Step = 99.2367%
Source Step = 99.2663%
Source Step = 99.2959%
vernier = 0.00146484
Source Step = 99.327%
Source Step = 99.3714%
Source Step = 99.4158%
Source Step = 99.4602%
Source Step = 99.5046%
Source Step = 99.5489%
vernier = 0.00219727
Source Step = 99.6155%
Source Step = 99.6821%
Source Step = 99.7487%
Source Step = 99.8153%
Source Step = 99.8819%
vernier = 0.0032959
Source Step = 99.9784%
Source stepping succeeded in finding the operating point.

N-Period=1
Fourier components of V(out)
DC component:0.125659

Harmonic	Frequency	 Fourier 	Normalized	 Phase  	Normalized
 Number 	  [Hz]   	Component	 Component	[degree]	Phase [deg]
    1   	5.000e+03	2.552e+01	1.000e+00	   -8.90°	    0.00°
    2   	1.000e+04	1.820e-01	7.133e-03	   72.99°	   81.89°
    3   	1.500e+04	2.059e-01	8.069e-03	   83.10°	   92.00°
    4   	2.000e+04	1.730e-01	6.779e-03	   58.41°	   67.32°
    5   	2.500e+04	1.643e-01	6.440e-03	   60.29°	   69.19°
    6   	3.000e+04	1.510e-01	5.917e-03	   47.13°	   56.03°
    7   	3.500e+04	1.420e-01	5.562e-03	   47.07°	   55.98°
    8   	4.000e+04	1.301e-01	5.097e-03	   38.78°	   47.68°
    9   	4.500e+04	1.220e-01	4.781e-03	   37.72°	   46.62°
Total Harmonic Distortion: 1.783805%(3.564245%)



Date: Tue Dec 07 21:07:22 2021
Total elapsed time: 35.786 seconds.

tnom = 27
temp = 27
method = modified trap
totiter = 1161505
traniter = 869402
tranpoints = 237860
accept = 215600
rejected = 22260
matrix size = 73
fillins = 162
solver = Normal
Matrix Compiler1: 16.90 KB object code size  2.5/1.3/[0.8]
Matrix Compiler2: 9.49 KB object code size  0.9/1.1/[0.5]

